Version 4
SHEET 1 936 680
WIRE -704 -464 -704 -496
WIRE -560 -400 -560 -432
WIRE -416 -400 -416 -432
WIRE -272 -400 -272 -432
WIRE -704 -352 -704 -384
WIRE -704 -352 -784 -352
WIRE -784 -336 -784 -352
WIRE -704 -336 -704 -352
WIRE -560 -288 -560 -320
WIRE -416 -288 -416 -320
WIRE -272 -288 -272 -320
WIRE -704 -224 -704 -256
WIRE 528 -64 480 -64
WIRE 624 -64 592 -64
WIRE 480 32 480 -64
WIRE 624 32 624 -64
WIRE 368 128 256 128
WIRE 480 128 480 32
WIRE 480 128 448 128
WIRE 544 144 544 128
WIRE 480 160 480 128
WIRE 512 160 480 160
WIRE 624 176 624 32
WIRE 624 176 576 176
WIRE 704 176 624 176
WIRE 848 176 784 176
WIRE 512 192 480 192
WIRE 368 224 320 224
WIRE 480 224 480 192
WIRE 480 224 448 224
WIRE 544 224 544 208
WIRE 848 256 848 176
WIRE 480 272 480 224
WIRE 480 368 480 336
WIRE 848 368 848 320
FLAG 320 224 Vref
FLAG 544 128 Vcc
FLAG 544 224 Vee
FLAG 480 368 0
FLAG -784 -336 0
FLAG -560 -288 0
FLAG -416 -288 0
FLAG -704 -496 Vcc
FLAG -560 -432 Vofs
FLAG -416 -432 Vref
FLAG -704 -224 Vee
FLAG -272 -288 0
FLAG -272 -432 Imeas
FLAG 256 128 Imeas
FLAG 848 368 0
DATAFLAG 480 160 ""
DATAFLAG 480 192 ""
DATAFLAG 656 176 ""
DATAFLAG 848 176 ""
SYMBOL OpAmps\\OP07 544 112 R0
SYMATTR InstName U1
SYMBOL res 464 112 R90
WINDOW 0 0 56 VBottom 2
WINDOW 3 32 56 VTop 2
SYMATTR InstName R3
SYMATTR Value 1k
SYMBOL res 464 208 R90
WINDOW 0 0 56 VBottom 2
WINDOW 3 32 56 VTop 2
SYMATTR InstName R4
SYMATTR Value 1k
SYMBOL res 576 16 R90
WINDOW 0 0 56 VBottom 2
WINDOW 3 32 56 VTop 2
SYMATTR InstName R5
SYMATTR Value 47k
SYMBOL cap 624 16 R90
WINDOW 0 0 32 VBottom 2
WINDOW 3 32 32 VTop 2
SYMATTR InstName C1
SYMATTR Value 3300p
SYMBOL cap 592 -80 R90
WINDOW 0 0 32 VBottom 2
WINDOW 3 32 32 VTop 2
SYMATTR InstName C2
SYMATTR Value 0.1µ
SYMBOL cap 464 272 R0
SYMATTR InstName C3
SYMATTR Value 0.01µ
SYMBOL voltage -704 -480 R0
WINDOW 123 0 0 Left 0
WINDOW 39 0 0 Left 0
SYMATTR InstName V1
SYMATTR Value 5
SYMBOL voltage -704 -352 R0
WINDOW 123 0 0 Left 0
WINDOW 39 0 0 Left 0
SYMATTR InstName V2
SYMATTR Value -5
SYMBOL voltage -560 -416 R0
WINDOW 123 0 0 Left 0
WINDOW 39 0 0 Left 0
SYMATTR InstName V3
SYMATTR Value 0.5
SYMBOL voltage -416 -416 R0
WINDOW 123 0 0 Left 0
WINDOW 39 0 0 Left 0
SYMATTR InstName V4
SYMATTR Value 0.5
SYMBOL voltage -272 -416 R0
WINDOW 123 0 0 Left 0
WINDOW 39 0 0 Left 0
SYMATTR InstName V5
SYMATTR Value 0.5
SYMBOL cap 832 256 R0
SYMATTR InstName C4
SYMATTR Value 10n
SYMBOL res 800 160 R90
WINDOW 0 0 56 VBottom 2
WINDOW 3 32 56 VTop 2
SYMATTR InstName R6
SYMATTR Value 100
TEXT -834 376 Left 2 !.op
