Version 4
SHEET 1 980 680
WIRE -48 -96 -112 -96
WIRE 64 -96 16 -96
WIRE 576 -96 512 -96
WIRE 688 -96 640 -96
WIRE -752 -48 -752 -80
WIRE -112 0 -112 -96
WIRE -64 0 -112 0
WIRE 64 0 64 -96
WIRE 64 0 16 0
WIRE 512 0 512 -96
WIRE 560 0 512 0
WIRE 688 0 688 -96
WIRE 688 0 640 0
WIRE -752 48 -752 32
WIRE -752 48 -832 48
WIRE -832 64 -832 48
WIRE -752 64 -752 48
WIRE -272 128 -384 128
WIRE -112 128 -112 0
WIRE -112 128 -192 128
WIRE -384 144 -384 128
WIRE 512 144 512 0
WIRE 560 144 512 144
WIRE -112 160 -112 128
WIRE -64 160 -112 160
WIRE 688 160 688 0
WIRE 688 160 624 160
WIRE 848 160 688 160
WIRE 912 160 848 160
WIRE -752 176 -752 144
WIRE 64 176 64 0
WIRE 64 176 0 176
WIRE 176 176 64 176
WIRE 304 176 176 176
WIRE 432 176 384 176
WIRE 560 176 432 176
WIRE -64 192 -112 192
WIRE -272 224 -384 224
WIRE -112 224 -112 192
WIRE -112 224 -192 224
WIRE 848 224 848 160
WIRE 912 224 912 160
WIRE -112 272 -112 224
WIRE -48 272 -112 272
WIRE 304 272 256 272
WIRE 432 272 432 176
WIRE 432 272 384 272
WIRE -112 304 -112 272
WIRE 512 304 512 144
WIRE -48 320 -48 272
WIRE 256 320 256 272
WIRE 848 352 848 288
WIRE 912 352 912 304
WIRE -112 432 -112 384
WIRE -48 432 -48 384
WIRE 512 432 512 384
FLAG -112 432 0
FLAG 512 432 0
FLAG -48 432 0
FLAG -832 64 0
FLAG -752 -80 Vcc
FLAG -32 144 Vcc
FLAG 592 128 Vcc
FLAG -752 176 Vee
FLAG -32 208 Vee
FLAG 592 192 Vee
FLAG 912 352 0
FLAG 848 352 0
FLAG 256 320 0
FLAG 176 176 dif
FLAG 848 160 out
SYMBOL OpAmps\\ADA4522-2 -32 112 R0
SYMATTR InstName U1
SYMBOL OpAmps\\ADA4522-2 592 96 R0
SYMATTR InstName U2
SYMBOL res -176 112 R90
WINDOW 0 0 56 VBottom 2
WINDOW 3 32 56 VTop 2
SYMATTR InstName R1
SYMATTR Value 10k
SYMBOL res -176 208 R90
WINDOW 0 0 56 VBottom 2
WINDOW 3 32 56 VTop 2
SYMATTR InstName R2
SYMATTR Value 10k
SYMBOL res 32 -16 R90
WINDOW 0 0 56 VBottom 2
WINDOW 3 32 56 VTop 2
SYMATTR InstName R3
SYMATTR Value 330k
SYMBOL res -96 400 R180
WINDOW 0 36 76 Left 2
WINDOW 3 36 40 Left 2
SYMATTR InstName R4
SYMATTR Value 330k
SYMBOL res 288 192 R270
WINDOW 0 32 56 VTop 2
WINDOW 3 0 56 VBottom 2
SYMATTR InstName R5
SYMATTR Value 10k
SYMBOL res 528 400 R180
WINDOW 0 36 76 Left 2
WINDOW 3 36 40 Left 2
SYMATTR InstName R7
SYMATTR Value 10k
SYMBOL res 544 16 R270
WINDOW 0 32 56 VTop 2
WINDOW 3 0 56 VBottom 2
SYMATTR InstName R8
SYMATTR Value 26.4k
SYMBOL voltage -752 -64 R0
WINDOW 123 0 0 Left 0
WINDOW 39 0 0 Left 0
SYMATTR InstName V2
SYMATTR Value 12
SYMBOL voltage -752 48 R0
WINDOW 123 0 0 Left 0
WINDOW 39 0 0 Left 0
SYMATTR InstName V3
SYMATTR Value 12
SYMBOL cap 16 -112 R90
WINDOW 0 0 32 VBottom 2
WINDOW 3 32 32 VTop 2
SYMATTR InstName C1
SYMATTR Value 100p
SYMATTR SpiceLine Rser=2m
SYMBOL cap -32 384 R180
WINDOW 0 24 56 Left 2
WINDOW 3 24 8 Left 2
SYMATTR InstName C2
SYMATTR Value 100p
SYMATTR SpiceLine Rser=2m
SYMBOL voltage -384 128 R0
WINDOW 123 24 124 Left 2
WINDOW 39 0 0 Left 0
SYMATTR InstName V1
SYMATTR Value ""
SYMATTR Value2 AC 50m 0
SYMBOL cap 640 -112 R90
WINDOW 0 0 32 VBottom 2
WINDOW 3 32 32 VTop 2
SYMATTR InstName C3
SYMATTR Value 1000p
SYMATTR SpiceLine Rser=2m
SYMBOL cap 832 224 R0
SYMATTR InstName C5
SYMATTR Value 100p
SYMBOL res 896 208 R0
SYMATTR InstName R9
SYMATTR Value 10k
SYMBOL res 400 256 R90
WINDOW 0 0 56 VBottom 2
WINDOW 3 32 56 VTop 2
SYMATTR InstName R6
SYMATTR Value 10k
TEXT -852 456 Left 2 !.ac oct 5 1m 1Meg
