Version 4.1
SHEET 1 880 680
WIRE 192 -80 96 -80
WIRE 352 -80 272 -80
WIRE 96 48 96 -80
WIRE 112 48 96 48
WIRE 208 48 192 48
WIRE 352 48 352 -80
WIRE 368 48 352 48
WIRE 480 48 448 48
WIRE -304 80 -304 48
WIRE 0 144 -112 144
WIRE 96 144 96 48
WIRE 96 144 80 144
WIRE 112 144 96 144
WIRE 208 160 208 48
WIRE 208 160 176 160
WIRE 240 160 208 160
WIRE 352 160 352 48
WIRE 352 160 320 160
WIRE 384 160 352 160
WIRE 112 176 96 176
WIRE 480 176 480 48
WIRE 480 176 448 176
WIRE -304 192 -304 160
WIRE 384 192 320 192
WIRE -112 208 -112 144
WIRE 144 208 144 192
WIRE 416 224 416 208
WIRE 96 240 96 176
WIRE 320 256 320 192
WIRE -112 416 -112 288
WIRE 128 416 -112 416
WIRE 320 416 320 336
WIRE 320 416 128 416
WIRE 128 448 128 416
FLAG 144 208 0
FLAG 416 224 0
FLAG 96 240 0
FLAG 128 448 0
FLAG -304 48 Vcc
FLAG -304 192 0
FLAG 144 128 Vcc
FLAG 416 144 Vcc
DATAFLAG 352 -80 ""
DATAFLAG 480 176 ""
DATAFLAG 208 160 ""
DATAFLAG 96 -32 ""
DATAFLAG 352 48 ""
SYMBOL OpAmps\\UniversalOpAmp 144 160 R0
SYMATTR InstName U1
SYMBOL OpAmps\\UniversalOpAmp 416 176 R0
SYMATTR InstName U2
SYMBOL res 96 128 R90
WINDOW 0 0 56 VBottom 2
WINDOW 3 32 56 VTop 2
SYMATTR InstName R1
SYMATTR Value 10k
SYMBOL res 208 32 R90
WINDOW 0 0 56 VBottom 2
WINDOW 3 32 56 VTop 2
SYMATTR InstName R2
SYMATTR Value 20k
SYMBOL res 336 144 R90
WINDOW 0 0 56 VBottom 2
WINDOW 3 32 56 VTop 2
SYMATTR InstName R3
SYMATTR Value 20k
SYMBOL res 464 32 R90
WINDOW 0 0 56 VBottom 2
WINDOW 3 32 56 VTop 2
SYMATTR InstName R4
SYMATTR Value 10k
SYMBOL res 288 -96 R90
WINDOW 0 0 56 VBottom 2
WINDOW 3 32 56 VTop 2
SYMATTR InstName R5
SYMATTR Value 40k
SYMBOL voltage -112 192 R0
WINDOW 123 0 0 Left 0
WINDOW 39 0 0 Left 0
SYMATTR InstName V1
SYMATTR Value 0.2
SYMBOL voltage 320 240 R0
WINDOW 123 0 0 Left 0
WINDOW 39 0 0 Left 0
SYMATTR InstName V2
SYMATTR Value 1
SYMBOL voltage -304 64 R0
WINDOW 123 0 0 Left 0
WINDOW 39 0 0 Left 0
SYMATTR InstName V3
SYMATTR Value 5
TEXT -144 472 Left 2 !.op
