Version 4.1
SHEET 1 880 680
WIRE 160 -208 -80 -208
WIRE 352 -208 160 -208
WIRE -80 -144 -80 -208
WIRE 160 -128 160 -208
WIRE 352 -128 352 -208
WIRE -80 0 -80 -64
WIRE 352 16 352 -48
WIRE 432 16 352 16
WIRE 592 16 496 16
WIRE 592 64 592 16
WIRE 352 80 352 16
WIRE 16 128 -80 128
WIRE 160 128 160 -48
WIRE 160 128 80 128
WIRE 288 128 160 128
WIRE 592 192 592 144
WIRE 352 224 352 176
WIRE 480 224 352 224
WIRE -80 256 -80 128
WIRE 480 256 480 224
WIRE 160 288 160 128
WIRE 352 288 352 224
WIRE 480 368 480 336
WIRE -80 464 -80 336
WIRE 160 480 160 368
WIRE 352 480 352 368
WIRE 480 480 480 432
FLAG 480 480 0
FLAG 352 480 0
FLAG 160 480 0
FLAG -80 464 0
FLAG -80 0 0
FLAG 592 192 0
DATAFLAG 352 16 ""
DATAFLAG 352 256 ""
DATAFLAG 352 -160 "I(R5)"
DATAFLAG 160 -16 "I(R2)"
DATAFLAG 128 128 ""
SYMBOL cap 80 112 R90
WINDOW 0 0 32 VBottom 2
WINDOW 3 32 32 VTop 2
SYMATTR InstName C1
SYMATTR Value 100”
SYMBOL res 144 272 R0
SYMATTR InstName R1
SYMATTR Value 1.8k
SYMBOL res 144 -144 R0
SYMATTR InstName R2
SYMATTR Value 9.1k
SYMBOL res 336 272 R0
SYMATTR InstName R3
SYMATTR Value 100
SYMBOL res 464 240 R0
SYMATTR InstName R4
SYMATTR Value 51
SYMBOL cap 464 368 R0
SYMATTR InstName C2
SYMATTR Value 150”
SYMBOL voltage -80 240 R0
WINDOW 3 24 152 Left 2
WINDOW 123 24 124 Left 2
WINDOW 39 0 0 Left 0
SYMATTR InstName V1
SYMATTR Value SINE(0 0.2 100 0)
SYMBOL npn 288 80 R0
SYMATTR InstName Q1
SYMATTR Value 2N2222
SYMBOL res 336 -144 R0
SYMATTR InstName R5
SYMATTR Value 470
SYMBOL voltage -80 -160 R0
WINDOW 123 0 0 Left 0
WINDOW 39 0 0 Left 0
SYMATTR InstName V2
SYMATTR Value 15
SYMBOL cap 496 0 R90
WINDOW 0 0 32 VBottom 2
WINDOW 3 32 32 VTop 2
SYMATTR InstName C3
SYMATTR Value 10”
SYMBOL res 576 48 R0
SYMATTR InstName R6
SYMATTR Value 100k
TEXT -112 504 Left 2 ;.op
TEXT 480 -168 Left 2 !.OPTIONS plotwinsize=0
TEXT 480 -136 Left 2 !.four 100 10 50 V(n003)
TEXT -112 528 Left 2 !.tran 20m 80m 20m 10n
