Version 4.1
SHEET 1 880 680
WIRE 0 -544 -32 -544
WIRE 176 -544 64 -544
WIRE -272 -496 -432 -496
WIRE -272 -432 -272 -496
WIRE -432 -416 -432 -496
WIRE 176 -400 176 -544
WIRE 176 -400 96 -400
WIRE 224 -400 176 -400
WIRE 416 -400 304 -400
WIRE -32 -384 -32 -544
WIRE -32 -384 -208 -384
WIRE 32 -384 -32 -384
WIRE 128 -368 96 -368
WIRE 144 -368 128 -368
WIRE -432 -288 -432 -336
WIRE 128 -272 128 -368
WIRE 128 -160 128 -192
WIRE -640 -16 -640 -64
WIRE -640 96 -640 64
WIRE -640 96 -704 96
WIRE -704 112 -704 96
WIRE -640 128 -640 96
WIRE 416 128 416 -400
WIRE 416 128 -64 128
WIRE -272 160 -272 -336
WIRE -272 160 -304 160
WIRE -176 160 -272 160
WIRE -512 176 -512 32
WIRE -272 176 -272 160
WIRE -64 176 -64 128
WIRE -176 192 -176 160
WIRE -112 192 -176 192
WIRE -112 240 -176 240
WIRE -640 256 -640 208
WIRE -272 272 -272 256
WIRE -176 272 -176 240
WIRE -176 272 -272 272
WIRE -272 320 -272 272
WIRE -64 320 -64 256
FLAG -640 -64 Vcc
FLAG -640 256 Vee
FLAG -704 112 0
FLAG -512 176 0
FLAG -512 32 OFS
FLAG -272 320 0
FLAG 64 -416 Vcc
FLAG 64 -352 Vee
FLAG 128 -160 0
FLAG 416 -400 SENS_AMP
FLAG 144 -368 REF
FLAG -304 160 SENS
FLAG -64 320 0
FLAG -432 -288 0
SYMBOL voltage -640 -32 R0
WINDOW 123 0 0 Left 0
WINDOW 39 0 0 Left 0
SYMATTR InstName V1
SYMATTR Value 5
SYMBOL voltage -640 112 R0
WINDOW 123 0 0 Left 0
WINDOW 39 0 0 Left 0
SYMATTR InstName V2
SYMATTR Value 5
SYMBOL res -288 160 R0
SYMATTR InstName R2
SYMATTR Value 10m
SYMBOL res 320 -416 R90
WINDOW 0 0 56 VBottom 2
WINDOW 3 32 56 VTop 2
SYMATTR InstName R3
SYMATTR Value 10k
SYMBOL cap 64 -560 R90
WINDOW 0 0 32 VBottom 2
WINDOW 3 32 32 VTop 2
SYMATTR InstName C1
SYMATTR Value 0.1”F
SYMBOL voltage 128 -288 R0
WINDOW 123 0 0 Left 0
WINDOW 39 0 0 Left 0
SYMATTR InstName V4
SYMATTR Value PULSE(0 2 5u 1u 1u 50u)
SYMBOL OpAmps\\UniversalOpAmp 64 -384 M0
SYMATTR InstName U2
SYMATTR Value2 Avol=1Meg GBW=10Meg Vos=1
SYMBOL e -64 160 R0
SYMATTR InstName E1
SYMATTR Value 40
SYMBOL npn -208 -432 M0
SYMATTR InstName Q1
SYMBOL voltage -432 -432 R0
WINDOW 123 0 0 Left 0
WINDOW 39 0 0 Left 0
SYMATTR InstName V3
SYMATTR Value 10
TEXT -560 -56 Left 2 !.tran 120u
