Version 4.1
SHEET 1 880 680
WIRE -96 -544 -128 -544
WIRE 80 -544 -32 -544
WIRE -272 -496 -480 -496
WIRE -480 -400 -480 -496
WIRE 80 -400 80 -544
WIRE 80 -400 0 -400
WIRE 128 -400 80 -400
WIRE 416 -400 208 -400
WIRE -368 -384 -432 -384
WIRE -128 -384 -128 -544
WIRE -128 -384 -368 -384
WIRE -64 -384 -128 -384
WIRE 32 -368 0 -368
WIRE 48 -368 32 -368
WIRE -384 -336 -432 -336
WIRE 32 -272 32 -368
WIRE -480 -256 -480 -320
WIRE -432 -256 -480 -256
WIRE -384 -256 -384 -336
WIRE -384 -256 -432 -256
WIRE -432 -224 -432 -256
WIRE 32 -160 32 -192
WIRE -640 -16 -640 -64
WIRE 80 -16 -32 -16
WIRE 288 -16 160 -16
WIRE -640 96 -640 64
WIRE -640 96 -704 96
WIRE -704 112 -704 96
WIRE -640 128 -640 96
WIRE -32 128 -32 -16
WIRE 0 128 -32 128
WIRE 288 128 288 -16
WIRE 288 128 256 128
WIRE -272 160 -272 -496
WIRE -272 160 -304 160
WIRE -144 160 -272 160
WIRE -512 176 -512 32
WIRE -272 176 -272 160
WIRE 0 192 -176 192
WIRE 304 192 256 192
WIRE -640 256 -640 208
WIRE -144 256 -144 160
WIRE 0 256 -144 256
WIRE 416 256 416 -400
WIRE 416 256 256 256
WIRE -272 272 -272 256
WIRE -176 272 -176 192
WIRE -176 272 -272 272
WIRE -272 320 -272 272
WIRE 0 320 -48 320
WIRE 304 320 256 320
FLAG -640 -64 Vcc
FLAG -640 256 Vee
FLAG -704 112 0
FLAG -512 176 0
FLAG -512 32 OFS
FLAG -48 320 Vee
FLAG 304 192 Vcc
FLAG 304 320 OFS
FLAG -272 320 0
FLAG -32 -416 Vcc
FLAG -32 -352 Vee
FLAG 32 -160 0
FLAG -432 -224 0
FLAG 416 -400 SENS_AMP
FLAG -368 -384 OUT
FLAG 48 -368 REF
FLAG -304 160 SENS
SYMBOL OpAmps\\LT1167 128 224 R0
SYMATTR InstName U1
SYMBOL res 176 -32 R90
WINDOW 0 0 56 VBottom 2
WINDOW 3 32 56 VTop 2
SYMATTR InstName R1
SYMATTR Value 2.6k
SYMBOL voltage -640 -32 R0
WINDOW 123 0 0 Left 0
WINDOW 39 0 0 Left 0
SYMATTR InstName V1
SYMATTR Value 5
SYMBOL voltage -640 112 R0
WINDOW 123 0 0 Left 0
WINDOW 39 0 0 Left 0
SYMATTR InstName V2
SYMATTR Value 5
SYMBOL res -288 160 R0
SYMATTR InstName R2
SYMATTR Value 0.01
SYMBOL res 224 -416 R90
WINDOW 0 0 56 VBottom 2
WINDOW 3 32 56 VTop 2
SYMATTR InstName R3
SYMATTR Value 10k
SYMBOL cap -32 -560 R90
WINDOW 0 0 32 VBottom 2
WINDOW 3 32 32 VTop 2
SYMATTR InstName C1
SYMATTR Value 0.1”F
SYMBOL voltage 32 -288 R0
WINDOW 123 0 0 Left 0
WINDOW 39 0 0 Left 0
SYMATTR InstName V4
SYMATTR Value PULSE(0 2 5u 1u 1u 50u)
SYMBOL g -480 -416 M0
SYMATTR InstName G1
SYMATTR Value 5
SYMBOL OpAmps\\UniversalOpAmp -32 -384 M0
SYMATTR InstName U2
SYMATTR Value2 Avol=1Meg GBW=10Meg Vos=1
TEXT -560 -56 Left 2 !.tran 120u
