Version 4.1
SHEET 1 2636 1380
WIRE 1184 -880 1184 -912
WIRE 1184 -768 1184 -800
WIRE 1184 -768 1104 -768
WIRE 1184 -752 1184 -768
WIRE 1104 -736 1104 -768
WIRE 1184 -640 1184 -672
WIRE 2208 -384 1952 -384
WIRE 1952 -320 1952 -384
WIRE 832 -272 544 -272
WIRE 1600 -272 912 -272
WIRE 2208 -192 2208 -384
WIRE 64 -176 32 -176
WIRE 160 -176 144 -176
WIRE 272 -176 224 -176
WIRE 1104 -160 1104 -192
WIRE 1104 -160 800 -160
WIRE 1456 -160 1104 -160
WIRE 1456 -128 1456 -160
WIRE 1952 -128 1952 -240
WIRE 800 -112 800 -160
WIRE -128 -80 -160 -80
WIRE -32 -80 -64 -80
WIRE 1248 -80 912 -80
WIRE 736 -48 656 -48
WIRE 272 -32 272 -176
WIRE 272 -32 176 -32
WIRE 1104 -32 1104 -160
WIRE 1456 -32 1456 -48
WIRE 656 -16 656 -48
WIRE 176 0 176 -32
WIRE 544 0 544 -272
WIRE 608 0 544 0
WIRE -160 16 -160 -80
WIRE -160 16 -208 16
WIRE -144 16 -160 16
WIRE -32 16 -32 -80
WIRE -32 16 -64 16
WIRE 32 16 32 -176
WIRE 32 16 -32 16
WIRE 128 16 32 16
WIRE 736 16 736 -48
WIRE 800 16 800 -32
WIRE 800 16 736 16
WIRE 848 16 800 16
WIRE 912 16 912 -80
WIRE 912 16 848 16
WIRE 944 16 912 16
WIRE 1040 16 1024 16
WIRE 1248 16 1248 -80
WIRE 1296 16 1248 16
WIRE 1392 16 1376 16
WIRE 272 48 272 -32
WIRE 416 48 272 48
WIRE 608 48 416 48
WIRE 1600 48 1600 -272
WIRE 1616 48 1600 48
WIRE 128 64 32 64
WIRE 800 64 800 16
WIRE 912 64 800 64
WIRE 2208 64 2208 -112
WIRE 2208 64 2112 64
WIRE 2352 64 2208 64
WIRE 800 80 800 64
WIRE -208 96 -208 16
WIRE 656 96 656 64
WIRE 1104 96 1104 64
WIRE 1456 96 1456 64
WIRE 32 112 32 64
WIRE 176 112 176 80
WIRE 416 112 416 48
WIRE 544 112 544 0
WIRE 32 144 32 112
WIRE 2112 160 2112 64
WIRE 2352 160 2352 64
WIRE 912 176 912 64
WIRE 1104 208 1104 176
WIRE 1456 208 1456 176
WIRE 1456 208 1104 208
WIRE 1600 208 1600 48
WIRE 1600 208 1456 208
WIRE 1696 208 1600 208
WIRE 1856 208 1776 208
WIRE 1920 208 1856 208
WIRE 2048 208 2000 208
WIRE 2288 208 2224 208
WIRE 800 224 800 160
WIRE 848 224 800 224
WIRE 416 240 416 192
WIRE 544 240 544 192
WIRE 1104 240 1104 208
WIRE 1456 240 1456 208
WIRE 800 256 800 224
WIRE 32 272 32 224
WIRE 1856 288 1856 208
WIRE 2224 288 2224 208
WIRE 2224 288 1856 288
WIRE 2352 320 2352 256
WIRE 800 352 800 336
WIRE 912 352 912 272
WIRE 912 352 800 352
WIRE 1104 352 1104 320
WIRE 1456 352 1456 320
WIRE 800 400 800 352
WIRE 848 400 800 400
WIRE 912 400 848 400
WIRE 944 400 912 400
WIRE 1040 400 1024 400
WIRE 1296 400 1248 400
WIRE 1392 400 1376 400
WIRE 800 448 800 400
WIRE 1456 464 1456 448
WIRE 2112 464 2112 256
WIRE 2352 464 2352 400
WIRE 2352 464 2112 464
WIRE 912 496 912 400
WIRE 1248 496 1248 400
WIRE 1248 496 912 496
WIRE 800 576 800 528
WIRE 1104 576 1104 448
WIRE 1104 576 800 576
WIRE 1456 576 1456 544
WIRE 1456 576 1104 576
WIRE 1104 608 1104 576
WIRE -208 768 -208 96
WIRE 1904 768 -208 768
WIRE 2112 784 2112 464
WIRE 2112 784 2016 784
WIRE 1904 800 1904 768
WIRE 2112 800 2112 784
WIRE 2016 816 2016 784
WIRE 2016 816 1952 816
WIRE 2016 864 1952 864
WIRE 2016 896 2016 864
WIRE 2112 896 2112 880
WIRE 2112 896 2016 896
WIRE 1904 928 1904 880
WIRE 2112 928 2112 896
FLAG 1184 -912 Vcc
FLAG 1184 -640 Vee
FLAG 1104 -736 0
FLAG 32 272 0
FLAG 32 112 IN
FLAG 1104 -192 Vcc
FLAG 1104 608 Vee
FLAG 1600 208 OUT
FLAG 544 240 0
FLAG 2112 928 0
FLAG -208 96 yt
FLAG 1952 -128 0
FLAG 1904 928 0
FLAG 848 16 Vb_H
FLAG 848 400 Vb_L
FLAG 656 96 0
FLAG 176 112 0
FLAG 416 240 0
DATAFLAG 1616 48 ""
DATAFLAG 1248 144 "I(R5)"
DATAFLAG 2288 848 "I(R11)"
DATAFLAG 1744 144 "I(V10)"
DATAFLAG 704 304 "V(Vb_H)-V(Vb_L)"
DATAFLAG 1968 144 "I(V11)"
DATAFLAG 2512 352 "I(V12)"
SYMBOL voltage 1184 -896 R0
WINDOW 123 0 0 Left 0
WINDOW 39 0 0 Left 0
SYMATTR InstName V1
SYMATTR Value 5
SYMBOL voltage 1184 -768 R0
WINDOW 123 0 0 Left 0
WINDOW 39 0 0 Left 0
SYMATTR InstName V2
SYMATTR Value 5
SYMBOL voltage 32 128 R0
WINDOW 123 0 0 Left 0
WINDOW 39 0 0 Left 0
SYMATTR InstName V4
SYMATTR Value PULSE(0 2 0.1u 1n 1n 2u)
SYMBOL Contrib\\Toshiba\\bjt\\TTD1415B 1040 -32 R0
SYMATTR InstName U1
SYMBOL Contrib\\Toshiba\\bjt\\TTB1020B 1040 448 M180
SYMATTR InstName U2
SYMBOL res 784 -128 R0
SYMATTR InstName R1
SYMATTR Value 510
SYMBOL res 784 432 R0
SYMATTR InstName R2
SYMATTR Value 510
SYMBOL res 1088 80 R0
SYMATTR InstName R5
SYMATTR Value 10
SYMBOL res 1088 224 R0
SYMATTR InstName R6
SYMATTR Value 10
SYMBOL Contrib\\Toshiba\\bjt\\TTD1415B 1392 -32 R0
SYMATTR InstName U3
SYMBOL Contrib\\Toshiba\\bjt\\TTB1020B 1392 448 M180
SYMATTR InstName U4
SYMBOL res 1440 80 R0
SYMATTR InstName R9
SYMATTR Value 10
SYMBOL res 1440 224 R0
SYMATTR InstName R10
SYMATTR Value 10
SYMBOL res 1040 0 R90
WINDOW 0 0 56 VBottom 2
WINDOW 3 32 56 VTop 2
SYMATTR InstName R3
SYMATTR Value 470
SYMBOL res 1040 384 R90
WINDOW 0 0 56 VBottom 2
WINDOW 3 32 56 VTop 2
SYMATTR InstName R4
SYMATTR Value 470
SYMBOL res 1392 384 R90
WINDOW 0 0 56 VBottom 2
WINDOW 3 32 56 VTop 2
SYMATTR InstName R7
SYMATTR Value 470
SYMBOL res 1392 0 R90
WINDOW 0 0 56 VBottom 2
WINDOW 3 32 56 VTop 2
SYMATTR InstName R8
SYMATTR Value 470
SYMBOL res 928 -288 R90
WINDOW 0 0 56 VBottom 2
WINDOW 3 32 56 VTop 2
SYMATTR InstName R12
SYMATTR Value 1k
SYMBOL res 528 96 R0
SYMATTR InstName R13
SYMATTR Value 100k
SYMBOL res 2096 784 R0
SYMATTR InstName R11
SYMATTR Value 10m
SYMBOL res -48 0 R90
WINDOW 0 0 56 VBottom 2
WINDOW 3 32 56 VTop 2
SYMATTR InstName R17
SYMATTR Value 1k
SYMBOL cap 224 -192 R90
WINDOW 0 0 32 VBottom 2
WINDOW 3 32 32 VTop 2
SYMATTR InstName C6
SYMATTR Value 1000p
SYMBOL Contrib\\Toshiba\\bjt\\TTC5200 2048 160 R0
SYMATTR InstName U6
SYMBOL Contrib\\Toshiba\\bjt\\TTC5200 2288 160 R0
SYMATTR InstName U9
SYMBOL e 1904 784 M0
SYMATTR InstName E1
SYMATTR Value 20
SYMBOL res 784 64 R0
SYMATTR InstName R14
SYMATTR Value {Rbias_H(w)}
SYMBOL res 784 240 R0
SYMATTR InstName R16
SYMATTR Value {Rbias_L(w)}
SYMBOL npn 848 176 R0
SYMATTR InstName Q1
SYMBOL voltage 1456 -144 R0
WINDOW 123 0 0 Left 0
WINDOW 39 0 0 Left 0
SYMATTR InstName V3
SYMATTR Value 0
SYMBOL voltage 1456 448 R0
WINDOW 123 0 0 Left 0
WINDOW 39 0 0 Left 0
SYMATTR InstName V9
SYMATTR Value 0
SYMBOL voltage 1680 208 R270
WINDOW 0 32 56 VTop 2
WINDOW 3 -32 56 VBottom 2
WINDOW 123 0 0 Left 0
WINDOW 39 0 0 Left 0
SYMATTR InstName V10
SYMATTR Value 0
SYMBOL voltage 1904 208 R270
WINDOW 0 32 56 VTop 2
WINDOW 3 -32 56 VBottom 2
WINDOW 123 0 0 Left 0
WINDOW 39 0 0 Left 0
SYMATTR InstName V11
SYMATTR Value 0
SYMBOL voltage 2352 304 R0
WINDOW 123 0 0 Left 0
WINDOW 39 0 0 Left 0
SYMATTR InstName V12
SYMATTR Value 0
SYMBOL res 160 -192 R90
WINDOW 0 0 56 VBottom 2
WINDOW 3 32 56 VTop 2
SYMATTR InstName R19
SYMATTR Value 500k
SYMBOL voltage 1952 -336 R0
WINDOW 123 0 0 Left 0
WINDOW 39 0 0 Left 0
SYMATTR InstName V7
SYMATTR Value 10
SYMBOL e2 176 -16 R0
SYMATTR InstName E2
SYMATTR Value 7e+6
SYMBOL e2 656 -32 R0
SYMATTR InstName E3
SYMATTR Value 7e+6
SYMBOL voltage 2208 -208 R0
WINDOW 3 24 44 Left 2
WINDOW 123 0 0 Left 0
WINDOW 39 0 0 Left 0
SYMATTR Value 0
SYMATTR InstName V8
SYMBOL res 400 96 R0
SYMATTR InstName R18
SYMATTR Value 10k
SYMBOL cap -64 -96 R90
WINDOW 0 0 32 VBottom 2
WINDOW 3 32 32 VTop 2
SYMATTR InstName C2
SYMATTR Value 100p
TEXT -272 312 Left 2 ;.op
TEXT -32 344 Left 2 !.tran 2.5u
TEXT 352 392 Left 2 !.param R1=3k
TEXT 352 416 Left 2 !.param R2=1k
TEXT 352 440 Left 2 !.param VR=2k
TEXT 352 464 Left 2 !.param w=0
TEXT 352 504 Left 2 !.func Rbias_H(w) {R1+VR*w}
TEXT 352 528 Left 2 !.func Rbias_L(w) {R2+VR*(1-w)}
