Version 4.1
SHEET 1 2568 680
WIRE 2240 -480 832 -480
WIRE 1440 -336 1152 -336
WIRE 1632 -336 1632 -416
WIRE 1632 -336 1440 -336
WIRE 1776 -336 1632 -336
WIRE 2112 -336 1776 -336
WIRE 1872 -272 1552 -272
WIRE 832 -256 832 -480
WIRE 1152 -256 1152 -336
WIRE 1776 -240 1776 -336
WIRE 2112 -240 2112 -336
WIRE 1440 -192 1440 -336
WIRE 1552 -192 1552 -272
WIRE 1616 -192 1552 -192
WIRE 1712 -192 1696 -192
WIRE 1872 -192 1872 -272
WIRE 1952 -192 1872 -192
WIRE 2048 -192 2032 -192
WIRE 1152 -144 1152 -176
WIRE 1152 -144 1056 -144
WIRE 1376 -144 1152 -144
WIRE 1776 -112 1776 -144
WIRE 2112 -112 2112 -144
WIRE 1440 -80 1440 -96
WIRE 1552 -80 1552 -192
WIRE 1552 -80 1440 -80
WIRE 1152 -48 1152 -144
WIRE 1440 -48 1440 -80
WIRE 832 -16 832 -176
WIRE 928 -16 832 -16
WIRE 1056 0 1056 -144
WIRE 1056 0 992 0
WIRE 1776 0 1776 -32
WIRE 2112 0 2112 -32
WIRE 2112 0 1776 0
WIRE 2240 0 2240 -480
WIRE 2240 0 2112 0
WIRE 2288 0 2240 0
WIRE 2336 0 2288 0
WIRE 2512 0 2416 0
WIRE 736 16 320 16
WIRE 928 16 736 16
WIRE 1776 32 1776 0
WIRE 2112 32 2112 0
WIRE 1440 80 1440 32
WIRE 1552 80 1440 80
WIRE 2512 80 2512 0
WIRE 160 96 160 64
WIRE 1440 96 1440 80
WIRE 320 128 320 16
WIRE 736 128 736 16
WIRE 832 128 832 -16
WIRE 1152 144 1152 32
WIRE 1376 144 1152 144
WIRE 1776 144 1776 112
WIRE 2112 144 2112 112
WIRE 1152 176 1152 144
WIRE 1552 192 1552 80
WIRE 1616 192 1552 192
WIRE 1712 192 1696 192
WIRE 1952 192 1872 192
WIRE 2048 192 2032 192
WIRE 160 208 160 176
WIRE 160 208 80 208
WIRE 160 224 160 208
WIRE 80 240 80 208
WIRE 320 256 320 208
WIRE 736 256 736 208
WIRE 832 256 832 208
WIRE 1552 272 1552 192
WIRE 1872 272 1872 192
WIRE 1872 272 1552 272
WIRE 160 336 160 304
WIRE 1152 336 1152 256
WIRE 1440 336 1440 192
WIRE 1440 336 1152 336
WIRE 1632 336 1440 336
WIRE 1776 336 1776 240
WIRE 1776 336 1632 336
WIRE 2112 336 2112 240
WIRE 2112 336 1776 336
WIRE 1632 416 1632 336
FLAG 160 64 Vcc
FLAG 160 336 Vee
FLAG 80 240 0
FLAG 832 256 0
FLAG 736 256 0
FLAG 320 256 0
FLAG 960 -32 Vcc
FLAG 960 32 Vee
FLAG 1632 -416 Vcc
FLAG 1632 416 Vee
FLAG 2512 80 0
FLAG 320 16 IN
FLAG 2288 0 OUT
DATAFLAG 544 16 ""
DATAFLAG 2240 0 ""
DATAFLAG 2464 0 "I(R17)"
DATAFLAG 1232 -144 "$-V(N012)"
SYMBOL voltage 160 80 R0
WINDOW 123 0 0 Left 0
WINDOW 39 0 0 Left 0
SYMATTR InstName V1
SYMATTR Value 12
SYMBOL voltage 160 208 R0
WINDOW 123 0 0 Left 0
WINDOW 39 0 0 Left 0
SYMATTR InstName V2
SYMATTR Value 12
SYMBOL OpAmps\\UniversalOpAmp 960 0 R0
SYMATTR InstName U1
SYMBOL res 816 112 R0
SYMATTR InstName R1
SYMATTR Value 10k
SYMBOL res 816 -272 R0
SYMATTR InstName R2
SYMATTR Value 40k
SYMBOL res 720 112 R0
SYMATTR InstName R3
SYMATTR Value 10k
SYMBOL voltage 320 112 R0
WINDOW 123 0 0 Left 0
WINDOW 39 0 0 Left 0
SYMATTR InstName V3
SYMATTR Value PULSE(0 2 5u 1u 1u 10u 20u)
SYMBOL res 1136 -272 R0
SYMATTR InstName R4
SYMATTR Value 10k
SYMBOL npn 1376 -192 R0
SYMATTR InstName Q2
SYMBOL pnp 1376 192 M180
SYMATTR InstName Q3
SYMBOL res 1136 160 R0
SYMATTR InstName R7
SYMATTR Value 10k
SYMBOL res 1424 -64 R0
SYMATTR InstName R8
SYMATTR Value 150
SYMBOL npn 1712 -240 R0
SYMATTR InstName Q4
SYMBOL res 1760 -128 R0
SYMATTR InstName R9
SYMATTR Value 0.1
SYMBOL res 1760 16 R0
SYMATTR InstName R10
SYMATTR Value 0.1
SYMBOL pnp 1712 240 M180
SYMATTR InstName Q5
SYMBOL res 1712 -208 R90
WINDOW 0 0 56 VBottom 2
WINDOW 3 32 56 VTop 2
SYMATTR InstName R11
SYMATTR Value 200
SYMBOL res 1712 176 R90
WINDOW 0 0 56 VBottom 2
WINDOW 3 32 56 VTop 2
SYMATTR InstName R12
SYMATTR Value 200
SYMBOL npn 2048 -240 R0
SYMATTR InstName Q6
SYMBOL res 2096 -128 R0
SYMATTR InstName R13
SYMATTR Value 0.1
SYMBOL res 2096 16 R0
SYMATTR InstName R14
SYMATTR Value 0.1
SYMBOL pnp 2048 240 M180
SYMATTR InstName Q7
SYMBOL res 2048 -208 R90
WINDOW 0 0 56 VBottom 2
WINDOW 3 32 56 VTop 2
SYMATTR InstName R15
SYMATTR Value 200
SYMBOL res 2048 176 R90
WINDOW 0 0 56 VBottom 2
WINDOW 3 32 56 VTop 2
SYMATTR InstName R16
SYMATTR Value 200
SYMBOL voltage 288 384 R0
WINDOW 123 0 0 Left 0
WINDOW 39 0 0 Left 0
SYMATTR InstName V4
SYMATTR Value -2
SYMBOL res 2432 -16 R90
WINDOW 0 0 56 VBottom 2
WINDOW 3 32 56 VTop 2
SYMATTR InstName R17
SYMATTR Value 10
SYMBOL voltage 1152 -64 R0
WINDOW 123 0 0 Left 0
WINDOW 39 0 0 Left 0
SYMATTR InstName V5
SYMATTR Value 8
TEXT 352 312 Left 2 ;.op
TEXT 352 344 Left 2 !.tran 20u
