Version 4
SHEET 1 880 680
WIRE -832 -144 -880 -144
WIRE -704 -144 -752 -144
WIRE -432 -128 -496 -128
WIRE -288 -128 -352 -128
WIRE -1008 -16 -1072 -16
WIRE -880 -16 -880 -144
WIRE -880 -16 -928 -16
WIRE -832 -16 -880 -16
WIRE -704 0 -704 -144
WIRE -704 0 -768 0
WIRE -624 0 -704 0
WIRE -496 0 -496 -128
WIRE -496 0 -544 0
WIRE -432 0 -496 0
WIRE -832 16 -880 16
WIRE -288 16 -288 -128
WIRE -288 16 -368 16
WIRE -1392 32 -1392 0
WIRE -432 32 -464 32
WIRE -1072 80 -1072 -16
WIRE -624 96 -720 96
WIRE -496 96 -496 0
WIRE -496 96 -544 96
WIRE -1392 128 -1392 112
WIRE -1392 128 -1472 128
WIRE -720 128 -720 96
WIRE -1472 144 -1472 128
WIRE -1392 144 -1392 128
WIRE -1392 256 -1392 224
WIRE -1072 256 -1072 160
WIRE -880 256 -880 16
WIRE -720 256 -720 208
WIRE -464 256 -464 32
FLAG -1472 144 0
FLAG -1392 0 Vcc
FLAG -1392 256 Vee
FLAG -1072 256 0
FLAG -800 -32 Vcc
FLAG -800 32 Vee
FLAG -880 256 0
FLAG -400 -16 Vcc
FLAG -400 48 Vee
FLAG -720 256 0
FLAG -464 256 0
DATAFLAG -720 0 ""
DATAFLAG -304 16 ""
DATAFLAG -1056 -16 ""
SYMBOL voltage -1392 16 R0
WINDOW 3 24 44 Left 2
WINDOW 123 0 0 Left 0
WINDOW 39 0 0 Left 0
SYMATTR Value 12
SYMATTR InstName V1
SYMBOL voltage -1392 128 R0
WINDOW 123 0 0 Left 0
WINDOW 39 0 0 Left 0
SYMATTR InstName V2
SYMATTR Value 12
SYMBOL voltage -1072 64 R0
WINDOW 123 0 0 Left 0
WINDOW 39 0 0 Left 0
SYMATTR InstName V3
SYMATTR Value 30
SYMBOL OpAmps\\ADA4522 -800 -64 R0
SYMATTR InstName U1
SYMBOL res -912 -32 R90
WINDOW 0 0 56 VBottom 2
WINDOW 3 32 56 VTop 2
SYMATTR InstName R1
SYMATTR Value 100k
SYMBOL res -736 -160 R90
WINDOW 0 0 56 VBottom 2
WINDOW 3 32 56 VTop 2
SYMATTR InstName R3
SYMATTR Value 10k
SYMBOL OpAmps\\ADA4522 -400 -48 R0
SYMATTR InstName U2
SYMBOL res -336 -144 R90
WINDOW 0 0 56 VBottom 2
WINDOW 3 32 56 VTop 2
SYMATTR InstName R2
SYMATTR Value 10k
SYMBOL res -528 -16 R90
WINDOW 0 0 56 VBottom 2
WINDOW 3 32 56 VTop 2
SYMATTR InstName R4
SYMATTR Value 10k
SYMBOL res -528 80 R90
WINDOW 0 0 56 VBottom 2
WINDOW 3 32 56 VTop 2
SYMATTR InstName R5
SYMATTR Value 10k
SYMBOL voltage -720 112 R0
WINDOW 123 0 0 Left 0
WINDOW 39 0 0 Left 0
SYMATTR InstName V4
SYMATTR Value -0.1
TEXT -1424 376 Left 2 !.op
