Version 4
SHEET 1 880 912
WIRE -848 -64 -896 -64
WIRE -688 -64 -768 -64
WIRE -624 -64 -688 -64
WIRE -480 -64 -544 -64
WIRE -896 -16 -896 -64
WIRE -1392 32 -1392 0
WIRE -688 48 -688 -64
WIRE -624 48 -688 48
WIRE -480 64 -480 -64
WIRE -480 64 -560 64
WIRE -416 64 -480 64
WIRE -624 80 -688 80
WIRE -1392 128 -1392 112
WIRE -1392 128 -1472 128
WIRE -1472 144 -1472 128
WIRE -1392 144 -1392 128
WIRE -848 144 -1040 144
WIRE -688 144 -688 80
WIRE -688 144 -768 144
WIRE -688 192 -688 144
WIRE -1392 256 -1392 224
WIRE -1040 320 -1040 144
WIRE -688 320 -688 272
WIRE -1040 432 -1040 400
WIRE -688 432 -688 400
WIRE -704 512 -752 512
WIRE -576 512 -624 512
WIRE -320 528 -368 528
WIRE -192 528 -240 528
WIRE -896 640 -960 640
WIRE -752 640 -752 512
WIRE -752 640 -816 640
WIRE -704 640 -752 640
WIRE -576 656 -576 512
WIRE -576 656 -640 656
WIRE -480 656 -576 656
WIRE -368 656 -368 528
WIRE -368 656 -400 656
WIRE -320 656 -368 656
WIRE -704 672 -752 672
WIRE -192 672 -192 528
WIRE -192 672 -256 672
WIRE -176 672 -192 672
WIRE -320 688 -336 688
WIRE -752 720 -752 672
WIRE -480 736 -528 736
WIRE -368 736 -368 656
WIRE -368 736 -400 736
WIRE -960 784 -960 640
WIRE -528 784 -528 736
WIRE -336 816 -336 688
WIRE -960 896 -960 864
WIRE -528 896 -528 864
FLAG -1472 144 0
FLAG -1392 0 Vcc
FLAG -1392 256 Vee
FLAG -672 624 Vcc
FLAG -672 688 Vee
FLAG -288 640 Vcc
FLAG -288 704 Vee
FLAG -336 816 0
FLAG -752 720 0
FLAG -960 896 0
FLAG -528 896 0
FLAG -592 32 Vcc
FLAG -592 96 Vee
FLAG -896 -16 0
FLAG -1040 432 0
FLAG -688 432 0
DATAFLAG -528 656 ""
DATAFLAG -528 656 ""
DATAFLAG -176 672 ""
DATAFLAG -960 640 ""
SYMBOL voltage -1392 16 R0
WINDOW 3 24 44 Left 2
WINDOW 123 0 0 Left 0
WINDOW 39 0 0 Left 0
SYMATTR Value 12
SYMATTR InstName V1
SYMBOL voltage -1392 128 R0
WINDOW 123 0 0 Left 0
WINDOW 39 0 0 Left 0
SYMATTR InstName V2
SYMATTR Value 12
SYMBOL ADA4522 -672 592 R0
SYMATTR InstName U2
SYMBOL ADA4522 -288 608 R0
SYMATTR InstName U3
SYMBOL Res -608 496 R90
WINDOW 0 0 56 VBottom 2
WINDOW 3 32 56 VTop 2
SYMATTR InstName R2
SYMATTR Value 10k
SYMBOL Res -800 624 R90
WINDOW 0 0 56 VBottom 2
WINDOW 3 32 56 VTop 2
SYMATTR InstName R4
SYMATTR Value 100k
SYMBOL Res -224 512 R90
WINDOW 0 0 56 VBottom 2
WINDOW 3 32 56 VTop 2
SYMATTR InstName R5
SYMATTR Value 10k
SYMBOL Res -384 640 R90
WINDOW 0 0 56 VBottom 2
WINDOW 3 32 56 VTop 2
SYMATTR InstName R6
SYMATTR Value 10k
SYMBOL Res -384 720 R90
WINDOW 0 0 56 VBottom 2
WINDOW 3 32 56 VTop 2
SYMATTR InstName R7
SYMATTR Value 10k
SYMBOL Voltage -528 768 R0
SYMATTR InstName V5
SYMATTR Value 0.1
SYMBOL Voltage -960 768 R0
SYMATTR InstName V6
SYMATTR Value 30
SYMBOL Res -752 -80 R90
WINDOW 0 0 56 VBottom 2
WINDOW 3 32 56 VTop 2
SYMATTR InstName R1
SYMATTR Value 10k
SYMBOL Res -752 128 R90
WINDOW 0 0 56 VBottom 2
WINDOW 3 32 56 VTop 2
SYMATTR InstName R3
SYMATTR Value 90k
SYMBOL Res -704 176 R0
SYMATTR InstName R8
SYMATTR Value 10k
SYMBOL ADA4522 -592 0 R0
SYMATTR InstName U1
SYMBOL Voltage -688 304 R0
SYMATTR InstName V3
SYMATTR Value 0.1
SYMBOL Voltage -1040 304 R0
SYMATTR InstName V4
SYMATTR Value 40
SYMBOL Res -528 -80 R90
WINDOW 0 0 56 VBottom 2
WINDOW 3 32 56 VTop 2
SYMATTR InstName R9
SYMATTR Value 10k
TEXT -1424 376 Left 2 !.op
