Version 4
SHEET 1 880 680
WIRE -768 -96 -832 -96
WIRE -640 -96 -688 -96
WIRE -608 -96 -640 -96
WIRE -496 -96 -528 -96
WIRE -832 -64 -832 -96
WIRE -1136 -16 -1264 -16
WIRE -880 -16 -1040 -16
WIRE -1136 16 -1136 -16
WIRE -1392 32 -1392 0
WIRE -576 48 -576 16
WIRE -976 64 -976 32
WIRE -640 64 -640 -96
WIRE -608 64 -640 64
WIRE -1264 80 -1264 -16
WIRE -1040 80 -1040 -16
WIRE -1008 80 -1040 80
WIRE -496 80 -496 -96
WIRE -496 80 -544 80
WIRE -880 96 -880 -16
WIRE -880 96 -944 96
WIRE -768 96 -880 96
WIRE -640 96 -688 96
WIRE -608 96 -640 96
WIRE -1136 112 -1136 96
WIRE -1008 112 -1136 112
WIRE -1392 144 -1392 112
WIRE -1136 144 -1136 112
WIRE -576 144 -576 112
WIRE -976 160 -976 128
WIRE -768 192 -864 192
WIRE -640 192 -640 96
WIRE -640 192 -688 192
WIRE -864 240 -864 192
WIRE -1264 256 -1264 160
WIRE -1200 256 -1264 256
WIRE -1136 256 -1136 224
WIRE -1136 256 -1200 256
WIRE -1200 288 -1200 256
WIRE -864 352 -864 320
FLAG -576 16 Vcc
FLAG -576 144 0
FLAG -1392 0 Vcc
FLAG -1392 144 0
FLAG -1200 288 0
FLAG -864 352 0
FLAG -832 -64 0
FLAG -976 32 Vcc
FLAG -976 160 0
SYMBOL voltage -1392 16 R0
WINDOW 3 24 44 Left 2
WINDOW 123 0 0 Left 0
WINDOW 39 0 0 Left 0
SYMATTR InstName V1
SYMATTR Value 5
SYMBOL voltage -1264 64 R0
WINDOW 123 0 0 Left 0
WINDOW 39 0 0 Left 0
SYMATTR InstName V2
SYMATTR Value 0
SYMBOL res -1152 0 R0
SYMATTR InstName R1
SYMATTR Value 15k
SYMBOL res -1152 128 R0
SYMATTR InstName R2
SYMATTR Value 1k
SYMBOL res -672 80 R90
WINDOW 0 0 56 VBottom 2
WINDOW 3 32 56 VTop 2
SYMATTR InstName R3
SYMATTR Value 10k
SYMBOL res -672 176 R90
WINDOW 0 0 56 VBottom 2
WINDOW 3 32 56 VTop 2
SYMATTR InstName R4
SYMATTR Value 10k
SYMBOL voltage -864 224 R0
WINDOW 123 0 0 Left 0
WINDOW 39 0 0 Left 0
SYMATTR InstName V4
SYMATTR Value 1
SYMBOL res -672 -112 R90
WINDOW 0 0 56 VBottom 2
WINDOW 3 32 56 VTop 2
SYMATTR InstName R5
SYMATTR Value 10k
SYMBOL res -512 -112 R90
WINDOW 0 0 56 VBottom 2
WINDOW 3 32 56 VTop 2
SYMATTR InstName R6
SYMATTR Value 10k
SYMBOL OpAmps\\OP284 -976 32 R0
SYMATTR InstName U1
SYMBOL OpAmps\\OP284 -576 16 R0
SYMATTR InstName U2
TEXT -1426 376 Left 2 !.dc V2 0 48 0.1
